Version 4
SHEET 1 992 680
WIRE 112 -112 -128 -112
WIRE 368 -112 240 -112
WIRE -128 -16 -128 -32
WIRE 240 -16 240 -32
WIRE 112 112 112 -112
WIRE 192 112 160 112
WIRE 368 112 368 -112
WIRE 448 112 416 112
WIRE -128 160 -160 160
WIRE -48 160 -128 160
WIRE 96 160 32 160
WIRE 256 160 176 160
WIRE 288 160 256 160
WIRE 352 160 288 160
WIRE 512 160 432 160
WIRE -160 176 -160 160
WIRE 512 192 512 160
WIRE 256 208 256 160
WIRE -160 288 -160 256
WIRE 256 304 256 272
WIRE 512 304 512 272
FLAG 512 304 0
FLAG -128 -16 0
FLAG 240 -16 0
FLAG 192 112 0
FLAG 448 112 0
FLAG -160 288 0
FLAG 256 304 0
FLAG 288 160 VC
FLAG -128 160 HV
SYMBOL res -64 176 R270
WINDOW 0 32 56 VTop 2
WINDOW 3 0 56 VBottom 2
SYMATTR InstName R1
SYMATTR Value 44k
SYMBOL sw 448 160 R90
SYMATTR InstName S2
SYMATTR Value SW2
SYMBOL res 496 176 R0
SYMATTR InstName R2
SYMATTR Value 1
SYMBOL Misc\\battery -160 160 R0
WINDOW 123 0 0 Left 2
WINDOW 39 0 0 Left 2
SYMATTR InstName V1
SYMATTR Value 1000
SYMBOL voltage -128 -128 R0
WINDOW 123 0 0 Left 2
WINDOW 39 0 0 Left 2
WINDOW 0 47 51 Left 2
WINDOW 3 -120 -17 Left 2
SYMATTR InstName V2
SYMATTR Value PULSE(0 1 0 1m 1m 120 120 1)
SYMBOL voltage 240 -128 R0
WINDOW 123 0 0 Left 2
WINDOW 39 0 0 Left 2
WINDOW 0 45 55 Left 2
WINDOW 3 -75 -10 Left 2
SYMATTR InstName V3
SYMATTR Value PULSE(0 1 125 1m 1m 10 10 1)
SYMBOL cap 240 208 R0
SYMATTR InstName C2
SYMATTR Value 440µ
SYMBOL sw 192 160 R90
SYMATTR InstName S1
SYMATTR Value SW1
TEXT 424 -80 Left 2 !.model SW1 SW(Ron=1m Roff=1Meg Vt=0.5)
TEXT 424 -32 Left 2 !.model SW2 SW(Ron=1m Roff=1Meg Vt=0.5)
TEXT 424 8 Left 2 !.tran 0 130 0 1m startup
